[General]
ned-path = ../../src;../../../inet/src;..
user-interface = Cmdenv
network = ccSim
cmdenv-express-mode = true
sim-time-limit = 50s



##############################################################################
#       Parameters for the entire simulation                                 #
##############################################################################
ccSim.playgroundSizeX = 500m
ccSim.playgroundSizeY = 500m



**.coreDebug = false



##############################################################################
#       Parameters for the ChannelControl                                    #
##############################################################################
ccSim.channelcontrol.maxInterferenceDistance = 91m
ccSim.channelcontrol.carrierFrequency = 868e+6Hz


# max transmission power [mW]
ccSim.channelcontrol.pMax = 1mW

# signal attenuation threshold [dBm]
ccSim.channelcontrol.sat = -90dBm

ccSim.channelcontrol.coreDebug = false
ccSim.channelcontrol.sendDirect = false

# path loss coefficient alpha
ccSim.channelcontrol.alpha = 3


##############################################################################
#       Parameters for the Host                                              #
##############################################################################
ccSim.node[*].mobility.initFromDisplayString = false
ccSim.node[*].mobility.initialZ = 0m

##############################################################################
#       Parameters for the Application Layer                                 #
##############################################################################

ccSim.node[*].mobility.coreDebug = false

##############################################################################
#       Parameters for the Nic                                               #
##############################################################################

ccSim.node[*].nic.connectionManagerName = "channelcontrol"








###############################################################################
#                 Configuration for Run 1 - 2D without torus                  #
###############################################################################
[Config Test1]

ccSim.world.useTorus = false
ccSim.playgroundSizeX = 900m
ccSim.playgroundSizeZ = 0
ccSim.numHosts = 33

# Horizontal aligned node testing
#BC-Node
ccSim.node[0].phyLayer = "ConnectedBCNodePhyLayer"
ccSim.node[0].mobility.initialX = 277m
ccSim.node[0].mobility.initialY = 277m

#Nodes right of BC-Node
#r-node in same cell of bc-node
ccSim.node[1].phyLayer = "ConnectedRNodePhyLayer"
ccSim.node[1].mobility.initialX = 367m
ccSim.node[1].mobility.initialY = 277m

#r-node in right cell of bc-node (in range)
ccSim.node[2].phyLayer = "ConnectedRNodePhyLayer"
ccSim.node[2].mobility.initialX = 368m
ccSim.node[2].mobility.initialY = 277m

#r-node in right cell of bc-node (out of range)
ccSim.node[3].phyLayer = "NotConnectedRNodePhyLayer"
ccSim.node[3].mobility.initialX = 369m
ccSim.node[3].mobility.initialY = 277m

#Nodes left of BC-Node
#r-node in same cell of bc-node
ccSim.node[4].phyLayer = "ConnectedRNodePhyLayer"
ccSim.node[4].mobility.initialX = 276m
ccSim.node[4].mobility.initialY = 277m

#r-node in left cell of bc-node (in range)
ccSim.node[5].phyLayer = "ConnectedRNodePhyLayer"
ccSim.node[5].mobility.initialX = 200m
ccSim.node[5].mobility.initialY = 277m

#r-node in left cell of bc-node (out of range)
ccSim.node[6].phyLayer = "NotConnectedRNodePhyLayer"
ccSim.node[6].mobility.initialX = 184m
ccSim.node[6].mobility.initialY = 277m

#Nodes below BC-Node
#r-node in same cell of bc-node
ccSim.node[7].phyLayer = "ConnectedRNodePhyLayer"
ccSim.node[7].mobility.initialX = 277m
ccSim.node[7].mobility.initialY = 367m

#r-node in lower cell of bc-node (in range)
ccSim.node[8].phyLayer = "ConnectedRNodePhyLayer"
ccSim.node[8].mobility.initialX = 277m
ccSim.node[8].mobility.initialY = 368m

#r-node in lower cell of bc-node (out of range)
ccSim.node[9].phyLayer = "NotConnectedRNodePhyLayer"
ccSim.node[9].mobility.initialX = 277m
ccSim.node[9].mobility.initialY = 369m

#Nodes above of BC-Node
#r-node in same cell of bc-node
ccSim.node[10].phyLayer = "ConnectedRNodePhyLayer"
ccSim.node[10].mobility.initialX = 277m
ccSim.node[10].mobility.initialY = 276m

#r-node in left cell of bc-node (in range)
ccSim.node[11].phyLayer = "ConnectedRNodePhyLayer"
ccSim.node[11].mobility.initialX = 277m
ccSim.node[11].mobility.initialY = 200m

#r-node in left cell of bc-node (out of range)
ccSim.node[12].phyLayer = "NotConnectedRNodePhyLayer"
ccSim.node[12].mobility.initialX = 277m
ccSim.node[12].mobility.initialY = 184m

#Nodes below right of BC-Node
#r-node in same cell of bc-node
ccSim.node[13].phyLayer = "ConnectedRNodePhyLayer"
ccSim.node[13].mobility.initialX = 341m

ccSim.node[13].mobility.initialY = 341m

#r-node in same cell of bc-node (in range)
ccSim.node[14].phyLayer = "NotConnectedRNodePhyLayer"
ccSim.node[14].mobility.initialX = 342m
ccSim.node[14].mobility.initialY = 342m

#r-node in lower-right cell of bc-node (out of range)
ccSim.node[15].phyLayer = "NotConnectedRNodePhyLayer"
ccSim.node[15].mobility.initialX = 369m
ccSim.node[15].mobility.initialY = 369m

#Nodes above left of BC-Node
#r-node in same cell of bc-node
ccSim.node[16].phyLayer = "ConnectedRNodePhyLayer"
ccSim.node[16].mobility.initialX = 276m
ccSim.node[16].mobility.initialY = 276m

#r-node in upper left cell of bc-node (in range)
ccSim.node[17].phyLayer = "ConnectedRNodePhyLayer"
ccSim.node[17].mobility.initialX = 213m
ccSim.node[17].mobility.initialY = 213m

#r-node in upper left cell of bc-node (out of range)
ccSim.node[18].phyLayer = "NotConnectedRNodePhyLayer"
ccSim.node[18].mobility.initialX = 211m
ccSim.node[18].mobility.initialY = 211m

#Nodes below left of BC-Node
#r-node in same cell of bc-node
ccSim.node[19].phyLayer = "ConnectedRNodePhyLayer"
ccSim.node[19].mobility.initialX = 276m
ccSim.node[19].mobility.initialY = 278m

#r-node in lower left cell of bc-node (in range)
ccSim.node[20].phyLayer = "ConnectedRNodePhyLayer"
ccSim.node[20].mobility.initialX = 213m
ccSim.node[20].mobility.initialY = 341m

#r-node in lower left cell of bc-node (out of range)
ccSim.node[21].phyLayer = "NotConnectedRNodePhyLayer"
ccSim.node[21].mobility.initialX = 211m
ccSim.node[21].mobility.initialY = 343m

#Nodes above right of BC-Node
#r-node in same cell of bc-node
ccSim.node[22].phyLayer = "ConnectedRNodePhyLayer"
ccSim.node[22].mobility.initialX = 341m
ccSim.node[22].mobility.initialY = 276m

#r-node in upper right cell of bc-node (in range)
ccSim.node[23].phyLayer = "ConnectedRNodePhyLayer"
ccSim.node[23].mobility.initialX = 342m
ccSim.node[23].mobility.initialY = 275m

#r-node in upper right cell of bc-node (out of range)
ccSim.node[24].phyLayer = "NotConnectedRNodePhyLayer"
ccSim.node[24].mobility.initialX = 369m
ccSim.node[24].mobility.initialY = 211m


#connections over border
#upper border
#BC-Node
ccSim.node[25].phyLayer = "NotConnectedBCNodePhyLayer"
ccSim.node[25].mobility.initialX = 92m
ccSim.node[25].mobility.initialY = 0m

#r-node
ccSim.node[26].phyLayer = "NotConnectedRNodePhyLayer"
ccSim.node[26].mobility.initialX = 92m
ccSim.node[26].mobility.initialY = 499m

#lower border
#BC-Node
ccSim.node[27].phyLayer = "NotConnectedBCNodePhyLayer"
ccSim.node[27].mobility.initialX = 400m
ccSim.node[27].mobility.initialY = 499m

#r-node
ccSim.node[28].phyLayer = "NotConnectedRNodePhyLayer"
ccSim.node[28].mobility.initialX = 400m
ccSim.node[28].mobility.initialY = 0m

#left border
#BC-Node
ccSim.node[29].phyLayer = "NotConnectedBCNodePhyLayer"
ccSim.node[29].mobility.initialX = 0m
ccSim.node[29].mobility.initialY = 92m

#r-node
ccSim.node[30].phyLayer = "NotConnectedRNodePhyLayer"
ccSim.node[30].mobility.initialX = 499m
ccSim.node[30].mobility.initialY = 92m

#right border
#BC-Node
ccSim.node[31].phyLayer = "NotConnectedBCNodePhyLayer"
ccSim.node[31].mobility.initialX = 499m
ccSim.node[31].mobility.initialY = 400m

#r-node
ccSim.node[32].phyLayer = "NotConnectedRNodePhyLayer"
ccSim.node[32].mobility.initialX = 0m
ccSim.node[32].mobility.initialY = 400m


###############################################################################
#                 Configuration for Run 2 - 2D with torus                     #
###############################################################################
[Config Test2]

ccSim.world.useTorus = true
ccSim.playgroundSizeZ = 0
ccSim.numHosts = 33

# Horizontal aligned node testing
#BC-Node
ccSim.node[0].phyLayer = "ConnectedBCNodePhyLayer"
ccSim.node[0].mobility.initialX = 277m
ccSim.node[0].mobility.initialY = 277m

#Nodes right of BC-Node
#r-node in same cell of bc-node
ccSim.node[1].phyLayer = "ConnectedRNodePhyLayer"
ccSim.node[1].mobility.initialX = 367m
ccSim.node[1].mobility.initialY = 277m

#r-node in right cell of bc-node (in range)
ccSim.node[2].phyLayer = "ConnectedRNodePhyLayer"
ccSim.node[2].mobility.initialX = 368m
ccSim.node[2].mobility.initialY = 277m

#r-node in right cell of bc-node (out of range)
ccSim.node[3].phyLayer = "NotConnectedRNodePhyLayer"
ccSim.node[3].mobility.initialX = 369m
ccSim.node[3].mobility.initialY = 277m

#Nodes left of BC-Node
#r-node in same cell of bc-node
ccSim.node[4].phyLayer = "ConnectedRNodePhyLayer"
ccSim.node[4].mobility.initialX = 276m
ccSim.node[4].mobility.initialY = 277m

#r-node in left cell of bc-node (in range)
ccSim.node[5].phyLayer = "ConnectedRNodePhyLayer"
ccSim.node[5].mobility.initialX = 200m
ccSim.node[5].mobility.initialY = 277m

#r-node in left cell of bc-node (out of range)
ccSim.node[6].phyLayer = "NotConnectedRNodePhyLayer"
ccSim.node[6].mobility.initialX = 184m
ccSim.node[6].mobility.initialY = 277m

#Nodes below BC-Node
#r-node in same cell of bc-node
ccSim.node[7].phyLayer = "ConnectedRNodePhyLayer"
ccSim.node[7].mobility.initialX = 277m
ccSim.node[7].mobility.initialY = 367m

#r-node in lower cell of bc-node (in range)
ccSim.node[8].phyLayer = "ConnectedRNodePhyLayer"
ccSim.node[8].mobility.initialX = 277m
ccSim.node[8].mobility.initialY = 368m

#r-node in lower cell of bc-node (out of range)
ccSim.node[9].phyLayer = "NotConnectedRNodePhyLayer"
ccSim.node[9].mobility.initialX = 277m
ccSim.node[9].mobility.initialY = 369m

#Nodes above of BC-Node
#r-node in same cell of bc-node
ccSim.node[10].phyLayer = "ConnectedRNodePhyLayer"
ccSim.node[10].mobility.initialX = 277m
ccSim.node[10].mobility.initialY = 276m

#r-node in left cell of bc-node (in range)
ccSim.node[11].phyLayer = "ConnectedRNodePhyLayer"
ccSim.node[11].mobility.initialX = 277m
ccSim.node[11].mobility.initialY = 200m

#r-node in left cell of bc-node (out of range)
ccSim.node[12].phyLayer = "NotConnectedRNodePhyLayer"
ccSim.node[12].mobility.initialX = 277m
ccSim.node[12].mobility.initialY = 184m


#Nodes below right of BC-Node
#r-node in same cell of bc-node
ccSim.node[13].phyLayer = "ConnectedRNodePhyLayer"
ccSim.node[13].mobility.initialX = 341m
ccSim.node[13].mobility.initialY = 341m

#r-node in same cell of bc-node (in range)
ccSim.node[14].phyLayer = "NotConnectedRNodePhyLayer"
ccSim.node[14].mobility.initialX = 342m
ccSim.node[14].mobility.initialY = 342m

#r-node in lower-right cell of bc-node (out of range)
ccSim.node[15].phyLayer = "NotConnectedRNodePhyLayer"
ccSim.node[15].mobility.initialX = 369m
ccSim.node[15].mobility.initialY = 369m

#Nodes above left of BC-Node
#r-node in same cell of bc-node
ccSim.node[16].phyLayer = "ConnectedRNodePhyLayer"
ccSim.node[16].mobility.initialX = 276m
ccSim.node[16].mobility.initialY = 276m

#r-node in upper left cell of bc-node (in range)
ccSim.node[17].phyLayer = "ConnectedRNodePhyLayer"
ccSim.node[17].mobility.initialX = 213m
ccSim.node[17].mobility.initialY = 213m

#r-node in upper left cell of bc-node (out of range)
ccSim.node[18].phyLayer = "NotConnectedRNodePhyLayer"
ccSim.node[18].mobility.initialX = 211m
ccSim.node[18].mobility.initialY = 211m

#Nodes below left of BC-Node
#r-node in same cell of bc-node
ccSim.node[19].phyLayer = "ConnectedRNodePhyLayer"
ccSim.node[19].mobility.initialX = 276m
ccSim.node[19].mobility.initialY = 278m

#r-node in lower left cell of bc-node (in range)
ccSim.node[20].phyLayer = "ConnectedRNodePhyLayer"
ccSim.node[20].mobility.initialX = 213m
ccSim.node[20].mobility.initialY = 341m

#r-node in lower left cell of bc-node (out of range)
ccSim.node[21].phyLayer = "NotConnectedRNodePhyLayer"
ccSim.node[21].mobility.initialX = 211m
ccSim.node[21].mobility.initialY = 343m

#Nodes above right of BC-Node
#r-node in same cell of bc-node
ccSim.node[22].phyLayer = "ConnectedRNodePhyLayer"
ccSim.node[22].mobility.initialX = 341m
ccSim.node[22].mobility.initialY = 276m

#r-node in upper right cell of bc-node (in range)
ccSim.node[23].phyLayer = "ConnectedRNodePhyLayer"
ccSim.node[23].mobility.initialX = 342m
ccSim.node[23].mobility.initialY = 275m

#r-node in upper right cell of bc-node (out of range)
ccSim.node[24].phyLayer = "NotConnectedRNodePhyLayer"
ccSim.node[24].mobility.initialX = 369m
ccSim.node[24].mobility.initialY = 211m


#connections over border
#upper border
#BC-Node
ccSim.node[25].phyLayer = "ConnectedBCNodePhyLayer"
ccSim.node[25].mobility.initialX = 92m
ccSim.node[25].mobility.initialY = 0m

#r-node
ccSim.node[26].phyLayer = "ConnectedRNodePhyLayer"
ccSim.node[26].mobility.initialX = 92m
ccSim.node[26].mobility.initialY = 499m

#lower border
#BC-Node
ccSim.node[27].phyLayer = "ConnectedBCNodePhyLayer"
ccSim.node[27].mobility.initialX = 400m
ccSim.node[27].mobility.initialY = 499m

#r-node
ccSim.node[28].phyLayer = "ConnectedRNodePhyLayer"
ccSim.node[28].mobility.initialX = 400m
ccSim.node[28].mobility.initialY = 0m

#left border
#BC-Node
ccSim.node[29].phyLayer = "ConnectedBCNodePhyLayer"
ccSim.node[29].mobility.initialX = 0m
ccSim.node[29].mobility.initialY = 92m

#r-node
ccSim.node[30].phyLayer = "ConnectedRNodePhyLayer"
ccSim.node[30].mobility.initialX = 499m
ccSim.node[30].mobility.initialY = 92m

#right border
#BC-Node
ccSim.node[31].phyLayer = "ConnectedBCNodePhyLayer"
ccSim.node[31].mobility.initialX = 499m
ccSim.node[31].mobility.initialY = 400m

#r-node
ccSim.node[32].phyLayer = "ConnectedRNodePhyLayer"
ccSim.node[32].mobility.initialX = 0m
ccSim.node[32].mobility.initialY = 400m


###############################################################################
#                 Configuration for Run 3 - 3D without torus                  #
###############################################################################
[Config Test3]

ccSim.world.useTorus = false
ccSim.playgroundSizeY = 900m
ccSim.playgroundSizeX = 800m
ccSim.playgroundSizeZ = 500m
ccSim.numHosts = 68

#### Node tests around one BC-Node####
### Center Nodes ###
#BC-Node
ccSim.node[0].phyLayer = "ConnectedBCNodePhyLayer"
ccSim.node[0].mobility.initialX = 322m
ccSim.node[0].mobility.initialY = 322m
ccSim.node[0].mobility.initialZ = 322m

## Nodes in Same Cell ##
ccSim.node[1].phyLayer = "ConnectedRNodePhyLayer"
ccSim.node[1].mobility.initialX = 367m
ccSim.node[1].mobility.initialY = 276m
ccSim.node[1].mobility.initialZ = 276m

ccSim.node[2].phyLayer = "ConnectedRNodePhyLayer"
ccSim.node[2].mobility.initialX = 276m
ccSim.node[2].mobility.initialY = 367m
ccSim.node[2].mobility.initialZ = 276m

ccSim.node[3].phyLayer = "ConnectedRNodePhyLayer"
ccSim.node[3].mobility.initialX = 276m
ccSim.node[3].mobility.initialY = 276m
ccSim.node[3].mobility.initialZ = 367m

ccSim.node[4].phyLayer = "ConnectedRNodePhyLayer"
ccSim.node[4].mobility.initialX = 276m
ccSim.node[4].mobility.initialY = 276m
ccSim.node[4].mobility.initialZ = 276m

ccSim.node[5].phyLayer = "ConnectedRNodePhyLayer"
ccSim.node[5].mobility.initialX = 276m
ccSim.node[5].mobility.initialY = 367m
ccSim.node[5].mobility.initialZ = 367m

ccSim.node[6].phyLayer = "ConnectedRNodePhyLayer"
ccSim.node[6].mobility.initialX = 367m
ccSim.node[6].mobility.initialY = 276m
ccSim.node[6].mobility.initialZ = 367m

ccSim.node[7].phyLayer = "ConnectedRNodePhyLayer"
ccSim.node[7].mobility.initialX = 367m
ccSim.node[7].mobility.initialY = 367m
ccSim.node[7].mobility.initialZ = 276m

ccSim.node[8].phyLayer = "ConnectedRNodePhyLayer"
ccSim.node[8].mobility.initialX = 367m
ccSim.node[8].mobility.initialY = 367m
ccSim.node[8].mobility.initialZ = 367m

## Nodes in other Cells - in Range ##

# Center Left Cell #
ccSim.node[9].phyLayer = "ConnectedRNodePhyLayer"
ccSim.node[9].mobility.initialX = 275m
ccSim.node[9].mobility.initialY = 322m
ccSim.node[9].mobility.initialZ = 322m

# Center Upper Left Cell #
ccSim.node[10].phyLayer = "ConnectedRNodePhyLayer"
ccSim.node[10].mobility.initialX = 275m
ccSim.node[10].mobility.initialY = 275m
ccSim.node[10].mobility.initialZ = 322m

# Center Upper Cell #
ccSim.node[11].phyLayer = "ConnectedRNodePhyLayer"
ccSim.node[11].mobility.initialX = 322m
ccSim.node[11].mobility.initialY = 275m
ccSim.node[11].mobility.initialZ = 322m

# Center Upper right Cell #
ccSim.node[12].phyLayer = "ConnectedRNodePhyLayer"
ccSim.node[12].mobility.initialX = 368m
ccSim.node[12].mobility.initialY = 275m
ccSim.node[12].mobility.initialZ = 322m

# Center right Cell #
ccSim.node[13].phyLayer = "ConnectedRNodePhyLayer"
ccSim.node[13].mobility.initialX = 368m
ccSim.node[13].mobility.initialY = 322m
ccSim.node[13].mobility.initialZ = 322m

# Center lower right Cell #
ccSim.node[14].phyLayer = "ConnectedRNodePhyLayer"
ccSim.node[14].mobility.initialX = 368m
ccSim.node[14].mobility.initialY = 368m
ccSim.node[14].mobility.initialZ = 322m

# Center lower Cell #
ccSim.node[15].phyLayer = "ConnectedRNodePhyLayer"
ccSim.node[15].mobility.initialX = 322m
ccSim.node[15].mobility.initialY = 368m
ccSim.node[15].mobility.initialZ = 322m

# Center lower left Cell #
ccSim.node[16].phyLayer = "ConnectedRNodePhyLayer"
ccSim.node[16].mobility.initialX = 275m
ccSim.node[16].mobility.initialY = 368m
ccSim.node[16].mobility.initialZ = 322m


# Front Left Cell #
ccSim.node[17].phyLayer = "ConnectedRNodePhyLayer"
ccSim.node[17].mobility.initialX = 275m


ccSim.node[17].mobility.initialY = 322m
ccSim.node[17].mobility.initialZ = 275m

# Front Upper Left Cell #
ccSim.node[18].phyLayer = "ConnectedRNodePhyLayer"
ccSim.node[18].mobility.initialX = 275m
ccSim.node[18].mobility.initialY = 275m
ccSim.node[18].mobility.initialZ = 275m

# Front Upper Cell #
ccSim.node[19].phyLayer = "ConnectedRNodePhyLayer"
ccSim.node[19].mobility.initialX = 322m
ccSim.node[19].mobility.initialY = 275m
ccSim.node[19].mobility.initialZ = 275m

# Front Upper right Cell #
ccSim.node[20].phyLayer = "ConnectedRNodePhyLayer"
ccSim.node[20].mobility.initialX = 368m
ccSim.node[20].mobility.initialY = 275m
ccSim.node[20].mobility.initialZ = 275m

# Front right Cell #
ccSim.node[21].phyLayer = "ConnectedRNodePhyLayer"
ccSim.node[21].mobility.initialX = 368m
ccSim.node[21].mobility.initialY = 322m
ccSim.node[21].mobility.initialZ = 275m

# Front lower right Cell #
ccSim.node[22].phyLayer = "ConnectedRNodePhyLayer"
ccSim.node[22].mobility.initialX = 368m
ccSim.node[22].mobility.initialY = 368m
ccSim.node[22].mobility.initialZ = 275m

# Front lower Cell #
ccSim.node[23].phyLayer = "ConnectedRNodePhyLayer"
ccSim.node[23].mobility.initialX = 322m
ccSim.node[23].mobility.initialY = 368m
ccSim.node[23].mobility.initialZ = 275m

# Front lower left Cell #
ccSim.node[24].phyLayer = "ConnectedRNodePhyLayer"
ccSim.node[24].mobility.initialX = 275m
ccSim.node[24].mobility.initialY = 368m
ccSim.node[24].mobility.initialZ = 275m


# Rear Left Cell #
ccSim.node[25].phyLayer = "ConnectedRNodePhyLayer"
ccSim.node[25].mobility.initialX = 275m
ccSim.node[25].mobility.initialY = 322m
ccSim.node[25].mobility.initialZ = 368m

# Rear Upper Left Cell #
ccSim.node[26].phyLayer = "ConnectedRNodePhyLayer"
ccSim.node[26].mobility.initialX = 275m
ccSim.node[26].mobility.initialY = 275m
ccSim.node[26].mobility.initialZ = 368m

# Rear Upper Cell #
ccSim.node[27].phyLayer = "ConnectedRNodePhyLayer"
ccSim.node[27].mobility.initialX = 322m
ccSim.node[27].mobility.initialY = 275m
ccSim.node[27].mobility.initialZ = 368m

# Rear Upper right Cell #
ccSim.node[28].phyLayer = "ConnectedRNodePhyLayer"
ccSim.node[28].mobility.initialX = 368m
ccSim.node[28].mobility.initialY = 275m
ccSim.node[28].mobility.initialZ = 368m

# Rear right Cell #
ccSim.node[29].phyLayer = "ConnectedRNodePhyLayer"
ccSim.node[29].mobility.initialX = 368m
ccSim.node[29].mobility.initialY = 322m
ccSim.node[29].mobility.initialZ = 368m

# Rear lower right Cell #
ccSim.node[30].phyLayer = "ConnectedRNodePhyLayer"
ccSim.node[30].mobility.initialX = 368m
ccSim.node[30].mobility.initialY = 368m
ccSim.node[30].mobility.initialZ = 368m

# Rear lower Cell #
ccSim.node[31].phyLayer = "ConnectedRNodePhyLayer"
ccSim.node[31].mobility.initialX = 322m
ccSim.node[31].mobility.initialY = 368m
ccSim.node[31].mobility.initialZ = 368m

# Rear lower left Cell #
ccSim.node[32].phyLayer = "ConnectedRNodePhyLayer"
ccSim.node[32].mobility.initialX = 275m
ccSim.node[32].mobility.initialY = 368m
ccSim.node[32].mobility.initialZ = 368m


## Nodes in other cells - not in range ##

# Center Left Cell #
ccSim.node[33].phyLayer = "NotConnectedRNodePhyLayer"
ccSim.node[33].mobility.initialX = 230m
ccSim.node[33].mobility.initialY = 322m
ccSim.node[33].mobility.initialZ = 322m

# Center Upper Left Cell #
ccSim.node[34].phyLayer = "NotConnectedRNodePhyLayer"
ccSim.node[34].mobility.initialX = 230m
ccSim.node[34].mobility.initialY = 230m
ccSim.node[34].mobility.initialZ = 322m

# Center Upper Cell #
ccSim.node[35].phyLayer = "NotConnectedRNodePhyLayer"
ccSim.node[35].mobility.initialX = 322m
ccSim.node[35].mobility.initialY = 230m
ccSim.node[35].mobility.initialZ = 322m

# Center Upper right Cell #
ccSim.node[36].phyLayer = "NotConnectedRNodePhyLayer"
ccSim.node[36].mobility.initialX = 414m
ccSim.node[36].mobility.initialY = 230m
ccSim.node[36].mobility.initialZ = 322m

# Center right Cell #
ccSim.node[37].phyLayer = "NotConnectedRNodePhyLayer"
ccSim.node[37].mobility.initialX = 414m
ccSim.node[37].mobility.initialY = 322m
ccSim.node[37].mobility.initialZ = 322m

# Center lower right Cell #
ccSim.node[38].phyLayer = "NotConnectedRNodePhyLayer"
ccSim.node[38].mobility.initialX = 414m
ccSim.node[38].mobility.initialY = 414m
ccSim.node[38].mobility.initialZ = 322m

# Center lower Cell #
ccSim.node[39].phyLayer = "NotConnectedRNodePhyLayer"
ccSim.node[39].mobility.initialX = 322m
ccSim.node[39].mobility.initialY = 414m
ccSim.node[39].mobility.initialZ = 322m

# Center lower left Cell #
ccSim.node[40].phyLayer = "NotConnectedRNodePhyLayer"
ccSim.node[40].mobility.initialX = 230m
ccSim.node[40].mobility.initialY = 414m
ccSim.node[40].mobility.initialZ = 322m


# Front Left Cell #
ccSim.node[41].phyLayer = "NotConnectedRNodePhyLayer"
ccSim.node[41].mobility.initialX = 230m
ccSim.node[41].mobility.initialY = 322m
ccSim.node[41].mobility.initialZ = 230m

# Front Upper Left Cell #
ccSim.node[42].phyLayer = "NotConnectedRNodePhyLayer"
ccSim.node[42].mobility.initialX = 230m
ccSim.node[42].mobility.initialY = 230m
ccSim.node[42].mobility.initialZ = 230m

# Front Upper Cell #
ccSim.node[43].phyLayer = "NotConnectedRNodePhyLayer"
ccSim.node[43].mobility.initialX = 322m
ccSim.node[43].mobility.initialY = 230m
ccSim.node[43].mobility.initialZ = 230m

# Front Upper right Cell #
ccSim.node[9].phyLayer = "NotConnectedRNodePhyLayer"
ccSim.node[9].mobility.initialX = 414m
ccSim.node[9].mobility.initialY = 230m
ccSim.node[9].mobility.initialZ = 230m

# Front right Cell #
ccSim.node[44].phyLayer = "NotConnectedRNodePhyLayer"
ccSim.node[44].mobility.initialX = 414m
ccSim.node[44].mobility.initialY = 322m
ccSim.node[44].mobility.initialZ = 230m

# Front lower right Cell #
ccSim.node[45].phyLayer = "NotConnectedRNodePhyLayer"
ccSim.node[45].mobility.initialX = 414m
ccSim.node[45].mobility.initialY = 414m
ccSim.node[45].mobility.initialZ = 230m

# Front lower Cell #
ccSim.node[46].phyLayer = "NotConnectedRNodePhyLayer"
ccSim.node[46].mobility.initialX = 322m
ccSim.node[46].mobility.initialY = 414m
ccSim.node[46].mobility.initialZ = 230m

# Front lower left Cell #
ccSim.node[47].phyLayer = "NotConnectedRNodePhyLayer"
ccSim.node[47].mobility.initialX = 230m
ccSim.node[47].mobility.initialY = 414m
ccSim.node[47].mobility.initialZ = 230m


# Rear Left Cell #
ccSim.node[48].phyLayer = "NotConnectedRNodePhyLayer"
ccSim.node[48].mobility.initialX = 230m
ccSim.node[48].mobility.initialY = 322m
ccSim.node[48].mobility.initialZ = 414m

# Rear Upper Left Cell #
ccSim.node[49].phyLayer = "NotConnectedRNodePhyLayer"
ccSim.node[49].mobility.initialX = 230m
ccSim.node[49].mobility.initialY = 230m
ccSim.node[49].mobility.initialZ = 414m

# Rear Upper Cell #
ccSim.node[50].phyLayer = "NotConnectedRNodePhyLayer"
ccSim.node[50].mobility.initialX = 322m

ccSim.node[50].mobility.initialY = 230m
ccSim.node[50].mobility.initialZ = 414m

# Rear Upper right Cell #
ccSim.node[51].phyLayer = "NotConnectedRNodePhyLayer"
ccSim.node[51].mobility.initialX = 414m
ccSim.node[51].mobility.initialY = 230m
ccSim.node[51].mobility.initialZ = 414m

# Rear right Cell #
ccSim.node[52].phyLayer = "NotConnectedRNodePhyLayer"
ccSim.node[52].mobility.initialX = 414m
ccSim.node[52].mobility.initialY = 322m
ccSim.node[52].mobility.initialZ = 414m

# Rear lower right Cell #
ccSim.node[53].phyLayer = "NotConnectedRNodePhyLayer"
ccSim.node[53].mobility.initialX = 414m
ccSim.node[53].mobility.initialY = 414m
ccSim.node[53].mobility.initialZ = 414m

# Rear lower Cell #
ccSim.node[54].phyLayer = "NotConnectedRNodePhyLayer"
ccSim.node[54].mobility.initialX = 322m
ccSim.node[54].mobility.initialY = 414m
ccSim.node[54].mobility.initialZ = 414m

# Rear lower left Cell #
ccSim.node[55].phyLayer = "NotConnectedRNodePhyLayer"
ccSim.node[55].mobility.initialX = 230m
ccSim.node[55].mobility.initialY = 414m
ccSim.node[55].mobility.initialZ = 414m

#### connections over border ####
#upper border
#BC-Node
ccSim.node[56].phyLayer = "NotConnectedBCNodePhyLayer"
ccSim.node[56].mobility.initialX = 92m
ccSim.node[56].mobility.initialY = 0m
ccSim.node[56].mobility.initialZ = 277m

#r-node
ccSim.node[57].phyLayer = "NotConnectedRNodePhyLayer"
ccSim.node[57].mobility.initialX = 92m
ccSim.node[57].mobility.initialY = 499m
ccSim.node[57].mobility.initialZ = 277m

#lower border
#BC-Node
ccSim.node[58].phyLayer = "NotConnectedBCNodePhyLayer"
ccSim.node[58].mobility.initialX = 400m
ccSim.node[58].mobility.initialY = 499m
ccSim.node[58].mobility.initialZ = 277m

#r-node
ccSim.node[59].phyLayer = "NotConnectedRNodePhyLayer"
ccSim.node[59].mobility.initialX = 400m
ccSim.node[59].mobility.initialY = 0m
ccSim.node[59].mobility.initialZ = 277m

#left border
#BC-Node
ccSim.node[60].phyLayer = "NotConnectedBCNodePhyLayer"
ccSim.node[60].mobility.initialX = 0m
ccSim.node[60].mobility.initialY = 92m
ccSim.node[60].mobility.initialZ = 277m

#r-node
ccSim.node[61].phyLayer = "NotConnectedRNodePhyLayer"
ccSim.node[61].mobility.initialX = 499m
ccSim.node[61].mobility.initialY = 92m
ccSim.node[61].mobility.initialZ = 277m

#right border

#BC-Node
ccSim.node[62].phyLayer = "NotConnectedBCNodePhyLayer"
ccSim.node[62].mobility.initialX = 499m
ccSim.node[62].mobility.initialY = 400m
ccSim.node[62].mobility.initialZ = 277m

#r-node
ccSim.node[63].phyLayer = "NotConnectedRNodePhyLayer"
ccSim.node[63].mobility.initialX = 0m
ccSim.node[63].mobility.initialY = 400m
ccSim.node[63].mobility.initialZ = 277m

#front border
#BC-Node
ccSim.node[64].phyLayer = "NotConnectedBCNodePhyLayer"
ccSim.node[64].mobility.initialX = 277m
ccSim.node[64].mobility.initialY = 92m
ccSim.node[64].mobility.initialZ = 0m

#r-node
ccSim.node[65].phyLayer = "NotConnectedRNodePhyLayer"
ccSim.node[65].mobility.initialX = 277m
ccSim.node[65].mobility.initialY = 92m
ccSim.node[65].mobility.initialZ = 499m

#front border
#BC-Node
ccSim.node[66].phyLayer = "NotConnectedBCNodePhyLayer"
ccSim.node[66].mobility.initialX = 277m
ccSim.node[66].mobility.initialY = 400m
ccSim.node[66].mobility.initialZ = 499m

#r-node
ccSim.node[67].phyLayer = "NotConnectedRNodePhyLayer"
ccSim.node[67].mobility.initialX = 277m
ccSim.node[67].mobility.initialY = 400m
ccSim.node[67].mobility.initialZ = 0m



###############################################################################
#                 Configuration for Run 4 - 3D with torus                     #
###############################################################################
[Config Test4]

ccSim.world.useTorus = true
ccSim.playgroundSizeZ = 500m
ccSim.numHosts = 68

#### Node tests around one BC-Node####
### Center Nodes ###
#BC-Node
ccSim.node[0].phyLayer = "ConnectedBCNodePhyLayer"
ccSim.node[0].mobility.initialX = 322m
ccSim.node[0].mobility.initialY = 322m
ccSim.node[0].mobility.initialZ = 322m

## Nodes in Same Cell ##
ccSim.node[1].phyLayer = "ConnectedRNodePhyLayer"
ccSim.node[1].mobility.initialX = 367m
ccSim.node[1].mobility.initialY = 276m
ccSim.node[1].mobility.initialZ = 276m

ccSim.node[2].phyLayer = "ConnectedRNodePhyLayer"
ccSim.node[2].mobility.initialX = 276m
ccSim.node[2].mobility.initialY = 367m
ccSim.node[2].mobility.initialZ = 276m
